134818185
  -OEChem-06041911372D

 64 68  0     1  0  0  0  0  0999 V2000
    6.3884    2.6091    0.0000 O   0  0  0  0  0  0  0  0  0  0  0  0
    7.2133   -1.3049    0.0000 O   0  0  0  0  0  0  0  0  0  0  0  0
    9.7613   -0.0874    0.0000 O   0  0  0  0  0  0  0  0  0  0  0  0
    3.0000    0.3777    0.0000 O   0  0  0  0  0  0  0  0  0  0  0  0
   11.2613    3.5106    0.0000 O   0  0  0  0  0  0  0  0  0  0  0  0
    3.5000   -3.4883    0.0000 O   0  0  0  0  0  0  0  0  0  0  0  0
    5.8503    0.9628    0.0000 N   0  0  0  0  0  0  0  0  0  0  0  0
    7.7514    0.3414    0.0000 N   0  0  0  0  0  0  0  0  0  0  0  0
    9.0942    3.3816    0.0000 N   0  0  0  0  0  0  0  0  0  0  0  0
    5.3122   -2.2930    0.0000 N   0  0  0  0  0  0  0  0  0  0  0  0
    6.0566   -0.0157    0.0000 C   0  0  3  0  0  0  0  0  0  0  0  0
    7.5452    1.3200    0.0000 C   0  0  3  0  0  0  0  0  0  0  0  0
    6.5946    1.6306    0.0000 C   0  0  0  0  0  0  0  0  0  0  0  0
    7.0071   -0.3264    0.0000 C   0  0  0  0  0  0  0  0  0  0  0  0
    5.3122   -0.6836    0.0000 C   0  0  0  0  0  0  0  0  0  0  0  0
    8.2894    1.9878    0.0000 C   0  0  0  0  0  0  0  0  0  0  0  0
    4.3660   -0.9883    0.0000 C   0  0  0  0  0  0  0  0  0  0  0  0
    9.2613    1.7786    0.0000 C   0  0  0  0  0  0  0  0  0  0  0  0
    4.8998    1.2734    0.0000 C   0  0  0  0  0  0  0  0  0  0  0  0
    8.4192   -0.4029    0.0000 C   0  0  0  0  0  0  0  0  0  0  0  0
    8.1864    2.9765    0.0000 C   0  0  0  0  0  0  0  0  0  0  0  0
    5.8958   -1.4883    0.0000 C   0  0  0  0  0  0  0  0  0  0  0  0
    9.7613    2.6446    0.0000 C   0  0  0  0  0  0  0  0  0  0  0  0
    4.3660   -1.9883    0.0000 C   0  0  0  0  0  0  0  0  0  0  0  0
    9.7613    0.9126    0.0000 C   0  0  0  0  0  0  0  0  0  0  0  0
    3.5000   -0.4883    0.0000 C   0  0  0  0  0  0  0  0  0  0  0  0
   10.7613    2.6446    0.0000 C   0  0  0  0  0  0  0  0  0  0  0  0
    3.5000   -2.4883    0.0000 C   0  0  0  0  0  0  0  0  0  0  0  0
   10.7613    0.9126    0.0000 C   0  0  0  0  0  0  0  0  0  0  0  0
    2.6340   -0.9883    0.0000 C   0  0  0  0  0  0  0  0  0  0  0  0
   11.2613    1.7786    0.0000 C   0  0  0  0  0  0  0  0  0  0  0  0
    2.6340   -1.9883    0.0000 C   0  0  0  0  0  0  0  0  0  0  0  0
   10.6274   -0.5874    0.0000 C   0  0  0  0  0  0  0  0  0  0  0  0
    2.0000    0.3777    0.0000 C   0  0  0  0  0  0  0  0  0  0  0  0
   12.2613    3.5106    0.0000 C   0  0  0  0  0  0  0  0  0  0  0  0
    2.6340   -3.9883    0.0000 C   0  0  0  0  0  0  0  0  0  0  0  0
    5.4672    0.1769    0.0000 H   0  0  0  0  0  0  0  0  0  0  0  0
    8.1345    1.1273    0.0000 H   0  0  0  0  0  0  0  0  0  0  0  0
    5.0924    1.8628    0.0000 H   0  0  0  0  0  0  0  0  0  0  0  0
    4.3105    1.4660    0.0000 H   0  0  0  0  0  0  0  0  0  0  0  0
    4.7072    0.6841    0.0000 H   0  0  0  0  0  0  0  0  0  0  0  0
    7.9578   -0.8169    0.0000 H   0  0  0  0  0  0  0  0  0  0  0  0
    8.8333   -0.8643    0.0000 H   0  0  0  0  0  0  0  0  0  0  0  0
    8.8807    0.0112    0.0000 H   0  0  0  0  0  0  0  0  0  0  0  0
    7.6495    3.2865    0.0000 H   0  0  0  0  0  0  0  0  0  0  0  0
    6.5158   -1.4883    0.0000 H   0  0  0  0  0  0  0  0  0  0  0  0
    9.2220    3.9883    0.0000 H   0  0  0  0  0  0  0  0  0  0  0  0
    5.5049   -2.8824    0.0000 H   0  0  0  0  0  0  0  0  0  0  0  0
   11.0713    0.3756    0.0000 H   0  0  0  0  0  0  0  0  0  0  0  0
    2.0970   -0.6783    0.0000 H   0  0  0  0  0  0  0  0  0  0  0  0
   11.8813    1.7786    0.0000 H   0  0  0  0  0  0  0  0  0  0  0  0
    2.0970   -2.2983    0.0000 H   0  0  0  0  0  0  0  0  0  0  0  0
   10.3174   -1.1243    0.0000 H   0  0  0  0  0  0  0  0  0  0  0  0
   11.1643   -0.8973    0.0000 H   0  0  0  0  0  0  0  0  0  0  0  0
   10.9373   -0.0504    0.0000 H   0  0  0  0  0  0  0  0  0  0  0  0
    2.0000    0.9977    0.0000 H   0  0  0  0  0  0  0  0  0  0  0  0
    1.3800    0.3777    0.0000 H   0  0  0  0  0  0  0  0  0  0  0  0
    2.0000   -0.2423    0.0000 H   0  0  0  0  0  0  0  0  0  0  0  0
   12.2613    2.8906    0.0000 H   0  0  0  0  0  0  0  0  0  0  0  0
   12.8813    3.5106    0.0000 H   0  0  0  0  0  0  0  0  0  0  0  0
   12.2613    4.1306    0.0000 H   0  0  0  0  0  0  0  0  0  0  0  0
    2.3240   -3.4514    0.0000 H   0  0  0  0  0  0  0  0  0  0  0  0
    2.0970   -4.2983    0.0000 H   0  0  0  0  0  0  0  0  0  0  0  0
    2.9440   -4.5252    0.0000 H   0  0  0  0  0  0  0  0  0  0  0  0
  1 13  2  0  0  0  0
  2 14  2  0  0  0  0
  3 25  1  0  0  0  0
  3 33  1  0  0  0  0
  4 26  1  0  0  0  0
  4 34  1  0  0  0  0
  5 27  1  0  0  0  0
  5 35  1  0  0  0  0
  6 28  1  0  0  0  0
  6 36  1  0  0  0  0
  7 11  1  0  0  0  0
  7 13  1  0  0  0  0
  7 19  1  0  0  0  0
  8 12  1  0  0  0  0
  8 14  1  0  0  0  0
  8 20  1  0  0  0  0
  9 21  1  0  0  0  0
  9 23  1  0  0  0  0
  9 47  1  0  0  0  0
 10 22  1  0  0  0  0
 10 24  1  0  0  0  0
 10 48  1  0  0  0  0
 11 14  1  0  0  0  0
 11 15  1  0  0  0  0
 11 37  1  0  0  0  0
 12 13  1  0  0  0  0
 12 16  1  0  0  0  0
 12 38  1  0  0  0  0
 15 17  1  0  0  0  0
 15 22  2  0  0  0  0
 16 18  1  0  0  0  0
 16 21  2  0  0  0  0
 17 24  1  0  0  0  0
 17 26  2  0  0  0  0
 18 23  1  0  0  0  0
 18 25  2  0  0  0  0
 19 39  1  0  0  0  0
 19 40  1  0  0  0  0
 19 41  1  0  0  0  0
 20 42  1  0  0  0  0
 20 43  1  0  0  0  0
 20 44  1  0  0  0  0
 21 45  1  0  0  0  0
 22 46  1  0  0  0  0
 23 27  2  0  0  0  0
 24 28  2  0  0  0  0
 25 29  1  0  0  0  0
 26 30  1  0  0  0  0
 27 31  1  0  0  0  0
 28 32  1  0  0  0  0
 29 31  2  0  0  0  0
 29 49  1  0  0  0  0
 30 32  2  0  0  0  0
 30 50  1  0  0  0  0
 31 51  1  0  0  0  0
 32 52  1  0  0  0  0
 33 53  1  0  0  0  0
 33 54  1  0  0  0  0
 33 55  1  0  0  0  0
 34 56  1  0  0  0  0
 34 57  1  0  0  0  0
 34 58  1  0  0  0  0
 35 59  1  0  0  0  0
 35 60  1  0  0  0  0
 35 61  1  0  0  0  0
 36 62  1  0  0  0  0
 36 63  1  0  0  0  0
 36 64  1  0  0  0  0
M  END
> <PUBCHEM_COMPOUND_CID>
134818185

> <PUBCHEM_COMPOUND_CANONICALIZED>
1

> <PUBCHEM_CACTVS_COMPLEXITY>
764

> <PUBCHEM_CACTVS_HBOND_ACCEPTOR>
6

> <PUBCHEM_CACTVS_HBOND_DONOR>
2

> <PUBCHEM_CACTVS_ROTATABLE_BOND>
6

> <PUBCHEM_CACTVS_SUBSKEYS>
AAADceB7uAAAAAAAAAAAAAAAAAAAAWLAAAA8YIAAAAAAAFgB/gAAHgAQAAAADCzBngY+xvPJlACoAzV3VASCiCAxYCAI2aGvTJgOZvLE9buVMChmxhnY6Af83fPegQABAgAKEAACAAIEABQgAAAAAAAAAA==

> <PUBCHEM_IUPAC_OPENEYE_NAME>
3,6-bis(4,7-dimethoxy-1H-indol-3-yl)-1,4-dimethyl-piperazine-2,5-dione

> <PUBCHEM_IUPAC_CAS_NAME>
3,6-bis(4,7-dimethoxy-1H-indol-3-yl)-1,4-dimethylpiperazine-2,5-dione

> <PUBCHEM_IUPAC_NAME_MARKUP>
3,6-bis(4,7-dimethoxy-1<I>H</I>-indol-3-yl)-1,4-dimethylpiperazine-2,5-dione

> <PUBCHEM_IUPAC_NAME>
3,6-bis(4,7-dimethoxy-1H-indol-3-yl)-1,4-dimethylpiperazine-2,5-dione

> <PUBCHEM_IUPAC_SYSTEMATIC_NAME>
3,6-bis(4,7-dimethoxy-1H-indol-3-yl)-1,4-dimethyl-piperazine-2,5-dione

> <PUBCHEM_IUPAC_TRADITIONAL_NAME>
3,6-bis(4,7-dimethoxy-1H-indol-3-yl)-1,4-dimethyl-piperazine-2,5-quinone

> <PUBCHEM_IUPAC_INCHI>
InChI=1S/C26H28N4O6/c1-29-23(13-11-27-21-17(35-5)9-7-15(33-3)19(13)21)26(32)30(2)24(25(29)31)14-12-28-22-18(36-6)10-8-16(34-4)20(14)22/h7-12,23-24,27-28H,1-6H3

> <PUBCHEM_IUPAC_INCHIKEY>
ISLMZPCBUPAGLH-UHFFFAOYSA-N

> <PUBCHEM_XLOGP3_AA>
2.6

> <PUBCHEM_EXACT_MASS>
492.201

> <PUBCHEM_MOLECULAR_FORMULA>
C26H28N4O6

> <PUBCHEM_MOLECULAR_WEIGHT>
492.532

> <PUBCHEM_OPENEYE_CAN_SMILES>
CN1C(C(=O)N(C(C1=O)C2=CNC3=C(C=CC(=C23)OC)OC)C)C4=CNC5=C(C=CC(=C45)OC)OC

> <PUBCHEM_OPENEYE_ISO_SMILES>
CN1C(C(=O)N(C(C1=O)C2=CNC3=C(C=CC(=C23)OC)OC)C)C4=CNC5=C(C=CC(=C45)OC)OC

> <PUBCHEM_CACTVS_TPSA>
109

> <PUBCHEM_MONOISOTOPIC_WEIGHT>
492.201

> <PUBCHEM_TOTAL_CHARGE>
0

> <PUBCHEM_HEAVY_ATOM_COUNT>
36

> <PUBCHEM_ATOM_DEF_STEREO_COUNT>
0

> <PUBCHEM_ATOM_UDEF_STEREO_COUNT>
2

> <PUBCHEM_BOND_DEF_STEREO_COUNT>
0

> <PUBCHEM_BOND_UDEF_STEREO_COUNT>
0

> <PUBCHEM_ISOTOPIC_ATOM_COUNT>
0

> <PUBCHEM_COMPONENT_COUNT>
1

> <PUBCHEM_CACTVS_TAUTO_COUNT>
-1

> <PUBCHEM_COORDINATE_TYPE>
1
5
255

> <PUBCHEM_BONDANNOTATIONS>
10  22  8
10  24  8
11  15  3
12  16  3
15  17  8
15  22  8
16  18  8
16  21  8
17  24  8
17  26  8
18  23  8
18  25  8
23  27  8
24  28  8
25  29  8
26  30  8
27  31  8
28  32  8
29  31  8
30  32  8
9  21  8
9  23  8

$$$$
